<?xml version="1.0" encoding="UTF-8"?>

<!-- generated on 28.02.2018 13:11:03 by Netedit Version 0.31.0
<?xml version="1.0" encoding="UTF-8"?>

<configuration xmlns:xsi="http://www.w3.org/2001/XMLSchema-instance" xsi:noNamespaceSchemaLocation="http://sumo.dlr.de/xsd/netconvertConfiguration.xsd">

    <input>
        <sumo-net-file value="C:\Users\svenman\Desktop\Unity3D-Umgebung\GenerateSimulationForUnity3D\output\map.net.xml"/>
    </input>

    <output>
        <output-file value="C:\Users\svenman\Desktop\Unity3D-Umgebung\GenerateSimulationForUnity3D\map.net.xml"/>
    </output>

    <processing>
        <no-turnarounds value="true"/>
        <offset.disable-normalization value="true"/>
        <lefthand value="false"/>
        <junctions.corner-detail value="0"/>
        <rectangular-lane-cut value="false"/>
        <walkingareas value="false"/>
    </processing>

</configuration>
-->

<net version="0.27" xmlns:xsi="http://www.w3.org/2001/XMLSchema-instance" xsi:noNamespaceSchemaLocation="http://sumo.dlr.de/xsd/net_file.xsd">

    <location netOffset="0.00,0.00" convBoundary="-91.39,-178.89,386.05,184.93" origBoundary="-10000000000.00,-10000000000.00,10000000000.00,10000000000.00" projParameter="!"/>

    <edge id=":gneJ10_0" function="internal">
        <lane id=":gneJ10_0_0" index="0" speed="13.89" length="1.44" shape="29.48,59.46 29.34,59.86 29.23,60.13 29.08,60.39 28.84,60.74"/>
    </edge>
    <edge id=":gneJ10_1" function="internal">
        <lane id=":gneJ10_1_0" index="0" speed="13.89" length="0.47" shape="26.13,58.85 26.21,58.74 26.26,58.65 26.29,58.57 26.34,58.43"/>
    </edge>
    <edge id=":gneJ11_0" function="internal">
        <lane id=":gneJ11_0_0" index="0" speed="13.89" length="5.95" shape="38.24,45.01 36.39,45.25 34.96,45.77 33.93,46.58 33.32,47.68"/>
    </edge>
    <edge id=":gneJ11_1" function="internal">
        <lane id=":gneJ11_1_0" index="0" speed="13.89" length="11.08" shape="38.24,45.01 35.16,44.71 33.05,43.48 31.92,41.32 31.77,38.22"/>
    </edge>
    <edge id=":gneJ11_2" function="internal">
        <lane id=":gneJ11_2_0" index="0" speed="13.89" length="5.18" shape="35.06,38.54 35.13,39.99 35.66,41.00 36.64,41.57 38.08,41.71"/>
    </edge>
    <edge id=":gneJ11_3" function="internal">
        <lane id=":gneJ11_3_0" index="0" speed="13.89" length="9.34" shape="35.06,38.54 34.80,41.30 34.57,43.19 34.14,45.03 33.32,47.68"/>
    </edge>
    <edge id=":gneJ11_4" function="internal">
        <lane id=":gneJ11_4_0" index="0" speed="13.89" length="8.61" shape="30.19,46.65 30.94,44.22 31.33,42.51 31.54,40.77 31.77,38.22"/>
    </edge>
    <edge id=":gneJ11_5" function="internal">
        <lane id=":gneJ11_5_0" index="0" speed="13.89" length="4.56" shape="30.19,46.65 31.25,44.60 32.92,43.10"/>
    </edge>
    <edge id=":gneJ11_6" function="internal">
        <lane id=":gneJ11_6_0" index="0" speed="13.89" length="5.39" shape="32.92,43.10 35.20,42.13 38.08,41.71"/>
    </edge>
    <edge id=":gneJ12_0" function="internal">
        <lane id=":gneJ12_0_0" index="0" speed="13.89" length="5.29" shape="39.01,19.41 38.00,20.28 37.24,21.31 36.73,22.50 36.47,23.86"/>
    </edge>
    <edge id=":gneJ12_1" function="internal">
        <lane id=":gneJ12_1_0" index="0" speed="13.89" length="3.63" shape="39.01,19.41 37.12,20.41 35.66,20.71"/>
    </edge>
    <edge id=":gneJ12_6" function="internal">
        <lane id=":gneJ12_6_0" index="0" speed="13.89" length="4.65" shape="35.66,20.71 35.19,20.81 33.21,20.59 31.19,19.77"/>
    </edge>
    <edge id=":gneJ12_2" function="internal">
        <lane id=":gneJ12_2_0" index="0" speed="13.89" length="4.58" shape="32.78,16.88 33.91,17.34 35.01,17.47 36.08,17.25 37.11,16.71"/>
    </edge>
    <edge id=":gneJ12_3" function="internal">
        <lane id=":gneJ12_3_0" index="0" speed="13.89" length="8.39" shape="32.78,16.88 34.56,18.17 35.77,19.76 36.41,21.66 36.47,23.86"/>
    </edge>
    <edge id=":gneJ12_4" function="internal">
        <lane id=":gneJ12_4_0" index="0" speed="13.89" length="4.54" shape="33.18,23.54 33.15,22.35 32.81,21.33 32.15,20.47 31.19,19.77"/>
    </edge>
    <edge id=":gneJ12_5" function="internal">
        <lane id=":gneJ12_5_0" index="0" speed="13.89" length="8.14" shape="33.18,23.54 33.59,21.47 34.37,19.64 35.55,18.05 37.11,16.71"/>
    </edge>
    <edge id=":gneJ13_0" function="internal">
        <lane id=":gneJ13_0_0" index="0" speed="13.89" length="0.63" shape="9.42,7.77 9.25,7.68 9.14,7.61 9.04,7.54 8.89,7.43"/>
    </edge>
    <edge id=":gneJ13_1" function="internal">
        <lane id=":gneJ13_1_0" index="0" speed="13.89" length="0.20" shape="10.84,4.77 10.89,4.80 10.92,4.82 10.96,4.85 11.01,4.88"/>
    </edge>
    <edge id=":gneJ14_0" function="internal">
        <lane id=":gneJ14_0_0" index="0" speed="13.89" length="0.30" shape="91.51,42.46 91.20,42.48"/>
    </edge>
    <edge id=":gneJ14_1" function="internal">
        <lane id=":gneJ14_1_0" index="0" speed="13.89" length="0.29" shape="91.05,39.18 91.34,39.17"/>
    </edge>
    <edge id=":gneJ15_0" function="internal">
        <lane id=":gneJ15_0_0" index="0" speed="13.89" length="0.12" shape="129.58,40.52 129.45,40.53"/>
    </edge>
    <edge id=":gneJ15_1" function="internal">
        <lane id=":gneJ15_1_0" index="0" speed="13.89" length="0.38" shape="129.29,37.23 129.66,37.23"/>
    </edge>
    <edge id=":gneJ16_0" function="internal">
        <lane id=":gneJ16_0_0" index="0" speed="13.89" length="0.31" shape="159.66,41.30 159.35,41.30"/>
    </edge>
    <edge id=":gneJ16_1" function="internal">
        <lane id=":gneJ16_1_0" index="0" speed="13.89" length="0.22" shape="159.43,38.00 159.66,38.00"/>
    </edge>
    <edge id=":gneJ17_0" function="internal">
        <lane id=":gneJ17_0_0" index="0" speed="13.89" length="0.10" shape="193.06,41.30 193.06,41.30"/>
    </edge>
    <edge id=":gneJ17_1" function="internal">
        <lane id=":gneJ17_1_0" index="0" speed="13.89" length="0.10" shape="193.06,38.00 193.06,38.00"/>
    </edge>
    <edge id=":gneJ18_0" function="internal">
        <lane id=":gneJ18_0_0" index="0" speed="13.89" length="0.12" shape="231.67,41.31 231.55,41.30"/>
    </edge>
    <edge id=":gneJ18_1" function="internal">
        <lane id=":gneJ18_1_0" index="0" speed="13.89" length="0.36" shape="231.55,38.00 231.92,38.02"/>
    </edge>
    <edge id=":gneJ19_0" function="internal">
        <lane id=":gneJ19_0_0" index="0" speed="13.89" length="5.60" shape="240.84,44.86 240.52,43.58 239.76,42.62 238.54,42.00 236.88,41.69"/>
    </edge>
    <edge id=":gneJ19_1" function="internal">
        <lane id=":gneJ19_1_0" index="0" speed="13.89" length="9.55" shape="240.84,44.86 240.25,35.32"/>
    </edge>
    <edge id=":gneJ19_2" function="internal">
        <lane id=":gneJ19_2_0" index="0" speed="13.89" length="9.53" shape="243.54,35.13 244.13,44.64"/>
    </edge>
    <edge id=":gneJ19_3" function="internal">
        <lane id=":gneJ19_3_0" index="0" speed="13.89" length="5.38" shape="243.54,35.13 243.28,38.20 242.15,40.20"/>
    </edge>
    <edge id=":gneJ19_6" function="internal">
        <lane id=":gneJ19_6_0" index="0" speed="13.89" length="5.64" shape="242.15,40.20 242.09,40.31 239.95,41.48 236.88,41.69"/>
    </edge>
    <edge id=":gneJ19_4" function="internal">
        <lane id=":gneJ19_4_0" index="0" speed="13.89" length="5.17" shape="237.13,38.40 238.57,38.30 239.57,37.76 240.13,36.76 240.25,35.32"/>
    </edge>
    <edge id=":gneJ19_5" function="internal">
        <lane id=":gneJ19_5_0" index="0" speed="13.89" length="10.39" shape="237.13,38.40 240.05,38.98 242.19,40.21 243.55,42.10 244.13,44.64"/>
    </edge>
    <edge id=":gneJ20_0" function="internal">
        <lane id=":gneJ20_0_0" index="0" speed="13.89" length="0.14" shape="58.32,5.88 58.20,5.96"/>
    </edge>
    <edge id=":gneJ20_1" function="internal">
        <lane id=":gneJ20_1_0" index="0" speed="13.89" length="0.28" shape="56.31,3.26 56.54,3.10"/>
    </edge>
    <edge id=":gneJ21_0" function="internal">
        <lane id=":gneJ21_0_0" index="0" speed="13.89" length="1.40" shape="68.64,-0.95 68.37,-0.64 68.17,-0.44 67.94,-0.27 67.59,-0.05"/>
    </edge>
    <edge id=":gneJ21_1" function="internal">
        <lane id=":gneJ21_1_0" index="0" speed="13.89" length="0.46" shape="65.81,-2.83 65.93,-2.90 66.00,-2.96 66.07,-3.02 66.16,-3.12"/>
    </edge>
    <edge id=":gneJ22_0" function="internal">
        <lane id=":gneJ22_0_0" index="0" speed="13.89" length="0.10" shape="87.06,-22.05 87.06,-22.05"/>
    </edge>
    <edge id=":gneJ22_1" function="internal">
        <lane id=":gneJ22_1_0" index="0" speed="13.89" length="0.10" shape="84.57,-24.22 84.57,-24.22"/>
    </edge>
    <edge id=":gneJ23_0" function="internal">
        <lane id=":gneJ23_0_0" index="0" speed="13.89" length="0.11" shape="100.11,-36.99 100.03,-36.91"/>
    </edge>
    <edge id=":gneJ23_1" function="internal">
        <lane id=":gneJ23_1_0" index="0" speed="13.89" length="0.33" shape="97.55,-39.08 97.77,-39.33"/>
    </edge>
    <edge id=":gneJ24_0" function="internal">
        <lane id=":gneJ24_0_0" index="0" speed="13.89" length="0.43" shape="109.99,-46.79 109.88,-46.73 109.80,-46.68 109.74,-46.62 109.65,-46.53"/>
    </edge>
    <edge id=":gneJ24_1" function="internal">
        <lane id=":gneJ24_1_0" index="0" speed="13.89" length="1.32" shape="107.31,-48.87 107.59,-49.14 107.79,-49.32 108.02,-49.47 108.35,-49.66"/>
    </edge>
    <edge id=":gneJ25_0" function="internal">
        <lane id=":gneJ25_0_0" index="0" speed="13.89" length="8.31" shape="133.44,-56.90 130.96,-56.90 129.22,-56.92 127.57,-56.59 125.39,-55.55"/>
    </edge>
    <edge id=":gneJ25_1" function="internal">
        <lane id=":gneJ25_1_0" index="0" speed="13.89" length="5.84" shape="133.44,-56.90 129.69,-57.27 127.97,-58.42"/>
    </edge>
    <edge id=":gneJ25_6" function="internal">
        <lane id=":gneJ25_6_0" index="0" speed="13.89" length="6.97" shape="127.97,-58.42 127.50,-58.73 126.85,-61.29 127.76,-64.95"/>
    </edge>
    <edge id=":gneJ25_2" function="internal">
        <lane id=":gneJ25_2_0" index="0" speed="13.89" length="5.61" shape="130.82,-63.72 130.42,-62.12 130.71,-61.00 131.67,-60.36 133.31,-60.20"/>
    </edge>
    <edge id=":gneJ25_3" function="internal">
        <lane id=":gneJ25_3_0" index="0" speed="13.89" length="10.16" shape="130.82,-63.72 129.80,-60.87 129.02,-58.84 127.78,-57.21 125.39,-55.55"/>
    </edge>
    <edge id=":gneJ25_4" function="internal">
        <lane id=":gneJ25_4_0" index="0" speed="13.89" length="7.94" shape="123.76,-58.42 125.59,-59.74 126.47,-61.06 127.00,-62.70 127.76,-64.95"/>
    </edge>
    <edge id=":gneJ25_5" function="internal">
        <lane id=":gneJ25_5_0" index="0" speed="13.89" length="9.89" shape="123.76,-58.42 126.35,-59.69 128.30,-60.14 130.37,-60.18 133.31,-60.20"/>
    </edge>
    <edge id=":gneJ26_0" function="internal">
        <lane id=":gneJ26_0_0" index="0" speed="13.89" length="0.31" shape="199.09,-59.49 198.78,-59.47"/>
    </edge>
    <edge id=":gneJ26_1" function="internal">
        <lane id=":gneJ26_1_0" index="0" speed="13.89" length="0.21" shape="198.65,-62.77 198.86,-62.78"/>
    </edge>
    <edge id=":gneJ27_0" function="internal">
        <lane id=":gneJ27_0_0" index="0" speed="13.89" length="9.12" shape="219.85,-55.87 218.80,-58.01 217.29,-59.48 215.29,-60.29 212.82,-60.44"/>
    </edge>
    <edge id=":gneJ27_1" function="internal">
        <lane id=":gneJ27_1_0" index="0" speed="13.89" length="12.81" shape="219.85,-55.87 218.73,-59.09 217.59,-61.86 216.27,-64.55 214.62,-67.53"/>
    </edge>
    <edge id=":gneJ27_2" function="internal">
        <lane id=":gneJ27_2_0" index="0" speed="13.89" length="12.78" shape="219.85,-55.87 219.19,-59.56 220.00,-62.07 222.28,-63.40 226.03,-63.53"/>
    </edge>
    <edge id=":gneJ27_3" function="internal">
        <lane id=":gneJ27_3_0" index="0" speed="13.89" length="5.61" shape="225.70,-60.25 224.05,-60.19 223.05,-59.61 222.70,-58.51 222.99,-56.89"/>
    </edge>
    <edge id=":gneJ27_4" function="internal">
        <lane id=":gneJ27_4_0" index="0" speed="13.89" length="12.89" shape="225.70,-60.25 222.29,-60.54 219.26,-60.66 216.24,-60.62 212.82,-60.44"/>
    </edge>
    <edge id=":gneJ27_5" function="internal">
        <lane id=":gneJ27_5_0" index="0" speed="13.89" length="6.61" shape="225.70,-60.25 222.27,-60.98 219.48,-62.34"/>
    </edge>
    <edge id=":gneJ27_12" function="internal">
        <lane id=":gneJ27_12_0" index="0" speed="13.89" length="7.17" shape="219.48,-62.34 219.28,-62.44 216.73,-64.62 214.62,-67.53"/>
    </edge>
    <edge id=":gneJ27_6" function="internal">
        <lane id=":gneJ27_6_0" index="0" speed="13.89" length="10.66" shape="217.47,-69.18 219.11,-66.92 221.08,-65.23 223.39,-64.10 226.03,-63.53"/>
    </edge>
    <edge id=":gneJ27_7" function="internal">
        <lane id=":gneJ27_7_0" index="0" speed="13.89" length="13.50" shape="217.47,-69.18 219.17,-66.10 220.59,-63.20 221.82,-60.21 222.99,-56.89"/>
    </edge>
    <edge id=":gneJ27_8" function="internal">
        <lane id=":gneJ27_8_0" index="0" speed="13.89" length="13.08" shape="217.47,-69.18 218.94,-65.60 218.65,-62.95 216.62,-61.23 212.82,-60.44"/>
    </edge>
    <edge id=":gneJ27_9" function="internal">
        <lane id=":gneJ27_9_0" index="0" speed="13.89" length="5.68" shape="212.60,-63.73 214.24,-64.07 215.13,-64.82 215.25,-65.97 214.62,-67.53"/>
    </edge>
    <edge id=":gneJ27_10" function="internal">
        <lane id=":gneJ27_10_0" index="0" speed="13.89" length="13.45" shape="212.60,-63.73 216.10,-63.92 219.32,-63.95 222.53,-63.83 226.03,-63.53"/>
    </edge>
    <edge id=":gneJ27_11" function="internal">
        <lane id=":gneJ27_11_0" index="0" speed="13.89" length="6.84" shape="212.60,-63.73 216.24,-63.51 219.18,-62.29"/>
    </edge>
    <edge id=":gneJ27_13" function="internal">
        <lane id=":gneJ27_13_0" index="0" speed="13.89" length="6.71" shape="219.18,-62.29 221.43,-60.09 222.99,-56.89"/>
    </edge>
    <edge id=":gneJ28_0" function="internal">
        <lane id=":gneJ28_0_0" index="0" speed="13.89" length="0.31" shape="222.85,-46.64 222.76,-46.93"/>
    </edge>
    <edge id=":gneJ28_1" function="internal">
        <lane id=":gneJ28_1_0" index="0" speed="13.89" length="0.29" shape="225.89,-47.95 225.98,-47.68"/>
    </edge>
    <edge id=":gneJ29_0" function="internal">
        <lane id=":gneJ29_0_0" index="0" speed="13.89" length="0.31" shape="228.54,-29.60 228.43,-29.90"/>
    </edge>
    <edge id=":gneJ29_1" function="internal">
        <lane id=":gneJ29_1_0" index="0" speed="13.89" length="0.26" shape="231.56,-30.94 231.65,-30.69"/>
    </edge>
    <edge id=":gneJ30_0" function="internal">
        <lane id=":gneJ30_0_0" index="0" speed="13.89" length="0.30" shape="235.19,-10.59 235.18,-10.68 235.17,-10.74 235.15,-10.79 235.12,-10.88"/>
    </edge>
    <edge id=":gneJ30_1" function="internal">
        <lane id=":gneJ30_1_0" index="0" speed="13.89" length="0.93" shape="238.23,-11.97 238.32,-11.72 238.38,-11.53 238.42,-11.35 238.46,-11.08"/>
    </edge>
    <edge id=":gneJ31_0" function="internal">
        <lane id=":gneJ31_0_0" index="0" speed="13.89" length="9.07" shape="239.30,19.30 239.13,16.61 238.97,14.78 238.74,12.95 238.34,10.29"/>
    </edge>
    <edge id=":gneJ31_1" function="internal">
        <lane id=":gneJ31_1_0" index="0" speed="13.89" length="4.97" shape="239.30,19.30 239.53,16.63 240.58,14.59"/>
    </edge>
    <edge id=":gneJ31_6" function="internal">
        <lane id=":gneJ31_6_0" index="0" speed="13.89" length="5.14" shape="240.58,14.59 242.45,13.18 245.13,12.40"/>
    </edge>
    <edge id=":gneJ31_2" function="internal">
        <lane id=":gneJ31_2_0" index="0" speed="13.89" length="5.13" shape="245.63,15.66 244.24,16.06 243.26,16.77 242.72,17.78 242.59,19.10"/>
    </edge>
    <edge id=":gneJ31_3" function="internal">
        <lane id=":gneJ31_3_0" index="0" speed="13.89" length="10.33" shape="245.63,15.66 242.80,15.69 240.64,14.80 239.15,13.00 238.34,10.29"/>
    </edge>
    <edge id=":gneJ31_4" function="internal">
        <lane id=":gneJ31_4_0" index="0" speed="13.89" length="5.00" shape="241.60,9.80 242.00,11.11 242.72,11.98 243.76,12.41 245.13,12.40"/>
    </edge>
    <edge id=":gneJ31_5" function="internal">
        <lane id=":gneJ31_5_0" index="0" speed="13.89" length="9.37" shape="241.60,9.80 242.01,12.55 242.26,14.43 242.42,16.33 242.59,19.10"/>
    </edge>
    <edge id=":gneJ32_0" function="internal">
        <lane id=":gneJ32_0_0" index="0" speed="13.89" length="0.73" shape="134.21,-71.76 134.05,-71.61 133.95,-71.50 133.88,-71.36 133.80,-71.17"/>
    </edge>
    <edge id=":gneJ32_1" function="internal">
        <lane id=":gneJ32_1_0" index="0" speed="13.89" length="2.23" shape="130.73,-72.39 130.99,-73.00 131.21,-73.40 131.51,-73.75 131.99,-74.20"/>
    </edge>
    <edge id=":gneJ33_0" function="internal">
        <lane id=":gneJ33_0_0" index="0" speed="13.89" length="0.35" shape="145.52,-82.06 145.27,-81.81"/>
    </edge>
    <edge id=":gneJ33_1" function="internal">
        <lane id=":gneJ33_1_0" index="0" speed="13.89" length="0.11" shape="143.05,-84.25 143.13,-84.33"/>
    </edge>
    <edge id=":gneJ34_0" function="internal">
        <lane id=":gneJ34_0_0" index="0" speed="13.89" length="0.14" shape="159.98,-97.21 159.88,-97.11"/>
    </edge>
    <edge id=":gneJ34_1" function="internal">
        <lane id=":gneJ34_1_0" index="0" speed="13.89" length="0.43" shape="157.49,-99.39 157.80,-99.69"/>
    </edge>
    <edge id=":gneJ35_0" function="internal">
        <lane id=":gneJ35_0_0" index="0" speed="13.89" length="5.60" shape="174.08,-104.82 173.36,-106.30 172.43,-106.98 171.28,-106.87 169.91,-105.96"/>
    </edge>
    <edge id=":gneJ35_1" function="internal">
        <lane id=":gneJ35_1_0" index="0" speed="13.89" length="10.62" shape="174.08,-104.82 173.10,-107.75 172.16,-109.79 170.78,-111.53 168.49,-113.56"/>
    </edge>
    <edge id=":gneJ35_2" function="internal">
        <lane id=":gneJ35_2_0" index="0" speed="13.89" length="11.22" shape="174.08,-104.82 173.32,-108.21 173.40,-111.04 174.31,-113.32 176.07,-115.04"/>
    </edge>
    <edge id=":gneJ35_3" function="internal">
        <lane id=":gneJ35_3_0" index="0" speed="13.89" length="6.93" shape="177.89,-112.28 177.00,-111.32 176.59,-109.92 176.66,-108.09 177.22,-105.83"/>
    </edge>
    <edge id=":gneJ35_4" function="internal">
        <lane id=":gneJ35_4_0" index="0" speed="13.89" length="10.19" shape="177.89,-112.28 175.41,-110.60 173.74,-109.33 172.15,-107.96 169.91,-105.96"/>
    </edge>
    <edge id=":gneJ35_5" function="internal">
        <lane id=":gneJ35_5_0" index="0" speed="13.89" length="4.72" shape="177.89,-112.28 175.68,-111.29 173.38,-111.18"/>
    </edge>
    <edge id=":gneJ35_12" function="internal">
        <lane id=":gneJ35_12_0" index="0" speed="13.89" length="5.49" shape="173.38,-111.18 170.98,-111.93 168.49,-113.56"/>
    </edge>
    <edge id=":gneJ35_6" function="internal">
        <lane id=":gneJ35_6_0" index="0" speed="13.89" length="6.01" shape="170.57,-116.12 172.12,-115.08 173.55,-114.55 174.86,-114.54 176.07,-115.04"/>
    </edge>
    <edge id=":gneJ35_7" function="internal">
        <lane id=":gneJ35_7_0" index="0" speed="13.89" length="12.47" shape="170.57,-116.12 173.03,-113.85 174.78,-111.58 176.08,-109.00 177.22,-105.83"/>
    </edge>
    <edge id=":gneJ35_8" function="internal">
        <lane id=":gneJ35_8_0" index="0" speed="13.89" length="12.08" shape="170.57,-116.12 172.65,-113.76 173.23,-111.28 172.32,-108.68 169.91,-105.96"/>
    </edge>
    <edge id=":gneJ35_9" function="internal">
        <lane id=":gneJ35_9_0" index="0" speed="13.89" length="6.11" shape="167.73,-108.44 169.05,-109.88 169.61,-111.21 169.43,-112.44 168.49,-113.56"/>
    </edge>
    <edge id=":gneJ35_10" function="internal">
        <lane id=":gneJ35_10_0" index="0" speed="13.89" length="10.65" shape="167.73,-108.44 170.03,-110.48 171.74,-111.94 173.53,-113.31 176.07,-115.04"/>
    </edge>
    <edge id=":gneJ35_11" function="internal">
        <lane id=":gneJ35_11_0" index="0" speed="13.89" length="5.80" shape="167.73,-108.44 170.85,-110.50 172.90,-110.70"/>
    </edge>
    <edge id=":gneJ35_13" function="internal">
        <lane id=":gneJ35_13_0" index="0" speed="13.89" length="6.95" shape="172.90,-110.70 173.47,-110.76 175.60,-109.20 177.22,-105.83"/>
    </edge>
    <edge id=":gneJ36_0" function="internal">
        <lane id=":gneJ36_0_0" index="0" speed="13.89" length="0.29" shape="196.57,-124.61 196.49,-124.57 196.44,-124.55 196.39,-124.52 196.32,-124.47"/>
    </edge>
    <edge id=":gneJ36_1" function="internal">
        <lane id=":gneJ36_1_0" index="0" speed="13.89" length="0.88" shape="194.50,-127.23 194.72,-127.37 194.87,-127.46 195.03,-127.54 195.27,-127.64"/>
    </edge>
    <edge id=":gneJ37_0" function="internal">
        <lane id=":gneJ37_0_0" index="0" speed="13.89" length="3.24" shape="176.83,-99.56 176.06,-100.13 175.59,-100.60 175.27,-101.19 174.95,-102.09"/>
    </edge>
    <edge id=":gneJ37_1" function="internal">
        <lane id=":gneJ37_1_0" index="0" speed="13.89" length="1.06" shape="178.10,-103.10 178.20,-102.81 178.30,-102.61 178.46,-102.46 178.71,-102.27"/>
    </edge>
    <edge id=":gneJ38_0" function="internal">
        <lane id=":gneJ38_0_0" index="0" speed="13.89" length="0.10" shape="193.22,-88.19 193.29,-88.14"/>
    </edge>
    <edge id=":gneJ38_1" function="internal">
        <lane id=":gneJ38_1_0" index="0" speed="13.89" length="0.10" shape="195.18,-90.85 195.25,-90.80"/>
    </edge>
    <edge id=":gneJ39_0" function="internal">
        <lane id=":gneJ39_0_0" index="0" speed="13.89" length="0.62" shape="210.50,-74.64 210.40,-74.80 210.33,-74.90 210.24,-74.99 210.09,-75.10"/>
    </edge>
    <edge id=":gneJ39_1" function="internal">
        <lane id=":gneJ39_1_0" index="0" speed="13.89" length="1.90" shape="212.12,-77.71 212.56,-77.36 212.84,-77.09 213.07,-76.78 213.35,-76.30"/>
    </edge>
    <edge id=":gneJ40_0" function="internal">
        <lane id=":gneJ40_0_0" index="0" speed="13.89" length="0.19" shape="243.70,-58.41 243.64,-58.42 243.61,-58.43 243.57,-58.44 243.51,-58.44"/>
    </edge>
    <edge id=":gneJ40_1" function="internal">
        <lane id=":gneJ40_1_0" index="0" speed="13.89" length="0.59" shape="243.84,-61.73 244.02,-61.71 244.14,-61.69 244.25,-61.67 244.42,-61.63"/>
    </edge>
    <edge id=":gneJ41_0" function="internal">
        <lane id=":gneJ41_0_0" index="0" speed="13.89" length="0.68" shape="260.81,-54.42 260.65,-54.54 260.53,-54.61 260.40,-54.66 260.20,-54.71"/>
    </edge>
    <edge id=":gneJ41_1" function="internal">
        <lane id=":gneJ41_1_0" index="0" speed="13.89" length="2.10" shape="260.92,-57.93 261.52,-57.78 261.93,-57.64 262.30,-57.43 262.80,-57.06"/>
    </edge>
    <edge id=":gneJ42_0" function="internal">
        <lane id=":gneJ42_0_0" index="0" speed="13.89" length="0.30" shape="283.27,-37.46 283.21,-37.52 283.17,-37.56 283.12,-37.60 283.05,-37.66"/>
    </edge>
    <edge id=":gneJ42_1" function="internal">
        <lane id=":gneJ42_1_0" index="0" speed="13.89" length="0.92" shape="285.04,-40.29 285.26,-40.13 285.40,-40.01 285.53,-39.88 285.72,-39.67"/>
    </edge>
    <edge id=":gneJ43_0" function="internal">
        <lane id=":gneJ43_0_0" index="0" speed="13.89" length="5.50" shape="310.00,-7.02 309.05,-8.01 307.94,-8.43 306.65,-8.29 305.18,-7.57"/>
    </edge>
    <edge id=":gneJ43_1" function="internal">
        <lane id=":gneJ43_1_0" index="0" speed="13.89" length="10.17" shape="310.00,-7.02 308.31,-9.49 307.06,-11.17 305.70,-12.75 303.69,-14.97"/>
    </edge>
    <edge id=":gneJ43_2" function="internal">
        <lane id=":gneJ43_2_0" index="0" speed="13.89" length="5.32" shape="310.00,-7.02 308.82,-9.48 308.51,-12.06"/>
    </edge>
    <edge id=":gneJ43_12" function="internal">
        <lane id=":gneJ43_12_0" index="0" speed="13.89" length="5.88" shape="308.51,-12.06 309.06,-14.74 310.48,-17.54"/>
    </edge>
    <edge id=":gneJ43_3" function="internal">
        <lane id=":gneJ43_3_0" index="0" speed="13.89" length="7.34" shape="313.25,-15.74 312.27,-13.86 311.86,-12.08 312.02,-10.41 312.74,-8.86"/>
    </edge>
    <edge id=":gneJ43_4" function="internal">
        <lane id=":gneJ43_4_0" index="0" speed="13.89" length="11.61" shape="313.25,-15.74 311.43,-13.08 309.77,-11.10 307.83,-9.40 305.18,-7.57"/>
    </edge>
    <edge id=":gneJ43_5" function="internal">
        <lane id=":gneJ43_5_0" index="0" speed="13.89" length="11.74" shape="313.25,-15.74 311.05,-13.22 308.72,-12.25 306.27,-12.84 303.69,-14.97"/>
    </edge>
    <edge id=":gneJ43_6" function="internal">
        <lane id=":gneJ43_6_0" index="0" speed="13.89" length="5.34" shape="306.13,-17.19 307.31,-16.22 308.42,-15.95 309.48,-16.39 310.48,-17.54"/>
    </edge>
    <edge id=":gneJ43_7" function="internal">
        <lane id=":gneJ43_7_0" index="0" speed="13.89" length="10.65" shape="306.13,-17.19 308.19,-14.91 309.65,-13.19 311.01,-11.39 312.74,-8.86"/>
    </edge>
    <edge id=":gneJ43_8" function="internal">
        <lane id=":gneJ43_8_0" index="0" speed="13.89" length="5.86" shape="306.13,-17.19 308.00,-14.46 308.47,-11.95"/>
    </edge>
    <edge id=":gneJ43_13" function="internal">
        <lane id=":gneJ43_13_0" index="0" speed="13.89" length="5.62" shape="308.47,-11.95 307.53,-9.65 305.18,-7.57"/>
    </edge>
    <edge id=":gneJ43_9" function="internal">
        <lane id=":gneJ43_9_0" index="0" speed="13.89" length="5.51" shape="303.39,-10.33 304.47,-11.31 304.88,-12.41 304.62,-13.63 303.69,-14.97"/>
    </edge>
    <edge id=":gneJ43_10" function="internal">
        <lane id=":gneJ43_10_0" index="0" speed="13.89" length="10.25" shape="303.39,-10.33 305.88,-12.02 307.49,-13.38 308.82,-15.03 310.48,-17.54"/>
    </edge>
    <edge id=":gneJ43_11" function="internal">
        <lane id=":gneJ43_11_0" index="0" speed="13.89" length="10.76" shape="303.39,-10.33 306.16,-11.66 308.64,-11.85 310.84,-10.92 312.74,-8.86"/>
    </edge>
    <edge id=":gneJ44_0" function="internal">
        <lane id=":gneJ44_0_0" index="0" speed="13.89" length="5.59" shape="343.94,43.71 342.85,42.48 341.76,42.08 340.69,42.50 339.62,43.74"/>
    </edge>
    <edge id=":gneJ44_1" function="internal">
        <lane id=":gneJ44_1_0" index="0" speed="13.89" length="10.08" shape="343.94,43.71 338.33,35.33"/>
    </edge>
    <edge id=":gneJ44_2" function="internal">
        <lane id=":gneJ44_2_0" index="0" speed="13.89" length="10.08" shape="341.08,33.50 346.68,41.87"/>
    </edge>
    <edge id=":gneJ44_3" function="internal">
        <lane id=":gneJ44_3_0" index="0" speed="13.89" length="4.71" shape="341.08,33.50 341.97,35.61 342.02,38.02"/>
    </edge>
    <edge id=":gneJ44_6" function="internal">
        <lane id=":gneJ44_6_0" index="0" speed="13.89" length="6.24" shape="342.02,38.02 341.24,40.73 339.62,43.74"/>
    </edge>
    <edge id=":gneJ44_4" function="internal">
        <lane id=":gneJ44_4_0" index="0" speed="13.89" length="7.12" shape="336.85,41.95 338.03,39.85 338.67,38.05 338.77,36.54 338.33,35.33"/>
    </edge>
    <edge id=":gneJ44_5" function="internal">
        <lane id=":gneJ44_5_0" index="0" speed="13.89" length="12.72" shape="336.85,41.95 339.28,39.13 341.73,38.17 344.20,39.09 346.68,41.87"/>
    </edge>
    <edge id=":gneJ45_0" function="internal">
        <lane id=":gneJ45_0_0" index="0" speed="13.89" length="0.23" shape="369.77,82.32 369.74,82.26 369.71,82.22 369.69,82.18 369.65,82.12"/>
    </edge>
    <edge id=":gneJ45_1" function="internal">
        <lane id=":gneJ45_1_0" index="0" speed="13.89" length="0.71" shape="372.39,80.29 372.51,80.46 372.59,80.58 372.65,80.71 372.74,80.90"/>
    </edge>
    <edge id=":gneJ47_0" function="internal">
        <lane id=":gneJ47_0_0" index="0" speed="13.89" length="0.79" shape="262.35,13.04 262.13,13.12 261.98,13.16 261.82,13.19 261.59,13.22"/>
    </edge>
    <edge id=":gneJ47_1" function="internal">
        <lane id=":gneJ47_1_0" index="0" speed="13.89" length="0.26" shape="261.09,9.96 261.17,9.95 261.22,9.94 261.27,9.93 261.34,9.90"/>
    </edge>
    <edge id=":gneJ48_0" function="internal">
        <lane id=":gneJ48_0_0" index="0" speed="13.89" length="1.29" shape="284.84,5.61 284.52,5.82 284.29,5.95 284.04,6.05 283.68,6.17"/>
    </edge>
    <edge id=":gneJ48_1" function="internal">
        <lane id=":gneJ48_1_0" index="0" speed="13.89" length="0.42" shape="282.67,3.02 282.78,2.99 282.86,2.95 282.94,2.91 283.04,2.85"/>
    </edge>
    <edge id=":gneJ49_0" function="internal">
        <lane id=":gneJ49_0_0" index="0" speed="13.89" length="0.17" shape="327.87,-38.24 327.84,-38.20 327.82,-38.17 327.80,-38.14 327.77,-38.10"/>
    </edge>
    <edge id=":gneJ49_1" function="internal">
        <lane id=":gneJ49_1_0" index="0" speed="13.89" length="0.53" shape="325.00,-39.90 325.09,-40.03 325.15,-40.12 325.21,-40.20 325.31,-40.32"/>
    </edge>
    <edge id=":gneJ5_0" function="internal">
        <lane id=":gneJ5_0_0" index="0" speed="13.89" length="5.29" shape="114.47,72.86 113.13,73.02 112.13,73.62 111.46,74.66 111.13,76.16"/>
    </edge>
    <edge id=":gneJ5_1" function="internal">
        <lane id=":gneJ5_1_0" index="0" speed="13.89" length="9.57" shape="114.47,72.86 104.91,72.60"/>
    </edge>
    <edge id=":gneJ5_2" function="internal">
        <lane id=":gneJ5_2_0" index="0" speed="13.89" length="9.68" shape="104.94,69.30 114.62,69.56"/>
    </edge>
    <edge id=":gneJ5_3" function="internal">
        <lane id=":gneJ5_3_0" index="0" speed="13.89" length="5.37" shape="104.94,69.30 107.89,69.76 109.90,71.05"/>
    </edge>
    <edge id=":gneJ5_6" function="internal">
        <lane id=":gneJ5_6_0" index="0" speed="13.89" length="5.37" shape="109.90,71.05 110.98,73.19 111.13,76.16"/>
    </edge>
    <edge id=":gneJ5_4" function="internal">
        <lane id=":gneJ5_4_0" index="0" speed="13.89" length="5.10" shape="107.85,75.86 107.77,74.45 107.26,73.43 106.31,72.82 104.91,72.60"/>
    </edge>
    <edge id=":gneJ5_5" function="internal">